Circuit: * C:\Users\wesle\Desktop\vacation\fonte_capacitiva\Draft2.asc

Direct Newton iteration for .op point succeeded.

Date: Thu Jan 02 19:04:52 2020
Total elapsed time: 0.115 seconds.

tnom = 27
temp = 27
method = modified trap
totiter = 2109
traniter = 2088
tranpoints = 1045
accept = 1045
rejected = 0
matrix size = 5
fillins = 0
solver = Normal
Matrix Compiler1: 168 bytes object code size  0.1/0.1/[0.1]
Matrix Compiler2: off  [0.1]/0.1/0.1

