Circuit: * C:\Users\wesle\Desktop\vacation\fonte_capacitiva\Draft1.asc

.OP point found by inspection.

Date: Thu Jan 02 14:50:31 2020
Total elapsed time: 0.097 seconds.

tnom = 27
temp = 27
method = modified trap
totiter = 14918
traniter = 14918
tranpoints = 3304
accept = 2281
rejected = 1023
matrix size = 6
fillins = 0
solver = Normal
Matrix Compiler1: 236 bytes object code size  0.1/0.1/[0.1]
Matrix Compiler2: 382 bytes object code size  0.1/0.1/[0.1]

