Circuit: * C:\Users\wesle\Desktop\vacation\dobrador_tensao\half_bridge.asc

.OP point found by inspection.

Date: Fri Jan 17 10:57:51 2020
Total elapsed time: 0.092 seconds.

tnom = 27
temp = 27
method = modified trap
totiter = 4866
traniter = 4866
tranpoints = 1502
accept = 1290
rejected = 212
matrix size = 4
fillins = 0
solver = Normal
Matrix Compiler1:       8 opcodes  0.1/[0.0]/0.0
Matrix Compiler2: 236 bytes object code size  0.0/0.1/[0.0]

