Circuit: * C:\Users\wesle\Desktop\projetos\joule_thief\joule_thief.asc

Direct Newton iteration for .op point succeeded.

Date: Fri Jan 17 14:24:48 2020
Total elapsed time: 0.079 seconds.

tnom = 27
temp = 27
method = modified trap
totiter = 2097
traniter = 2088
tranpoints = 1045
accept = 1045
rejected = 0
matrix size = 6
fillins = 4
solver = Normal
Matrix Compiler1: 810 bytes object code size  0.1/0.1/[0.1]
Matrix Compiler2: 612 bytes object code size  0.1/0.1/[0.1]

