Circuit: * C:\Users\wesle\Desktop\projetos\Fonte\fonte_chaveada_completa\Draft2.asc

WARNING: Less than two connections to node VOUT.  This node is used by D1.
Direct Newton iteration for .op point succeeded.

Date: Thu Jan 23 15:29:14 2020
Total elapsed time: 0.161 seconds.

tnom = 27
temp = 27
method = modified trap
totiter = 2126
traniter = 2094
tranpoints = 1048
accept = 1048
rejected = 0
matrix size = 8
fillins = 0
solver = Normal
Matrix Compiler1: 246 bytes object code size  0.1/0.1/[0.1]
Matrix Compiler2: off  [0.1]/0.1/0.1

