Circuit: * C:\Users\wesle\Desktop\vacation\fonte_capacitiva\Draft2.asc

WARNING: Less than two connections to node VOUT.  This node is used by L2.
.OP point found by inspection.

Date: Fri Jan 17 10:15:39 2020
Total elapsed time: 0.150 seconds.

tnom = 27
temp = 27
method = modified trap
totiter = 5465
traniter = 5465
tranpoints = 2458
accept = 1736
rejected = 722
matrix size = 4
fillins = 0
solver = Normal
Matrix Compiler1: 154 bytes object code size  0.3/0.1/[0.0]
Matrix Compiler2: 262 bytes object code size  0.2/0.2/[0.0]

