Circuit: * C:\Users\wesle\Desktop\vacation\lm555\Constant_Frequency\LTspice\Draft2.asc

Direct Newton iteration for .op point succeeded.

Date: Mon Dec 09 21:21:32 2019
Total elapsed time: 0.089 seconds.

tnom = 27
temp = 27
method = modified trap
totiter = 2100
traniter = 2088
tranpoints = 1045
accept = 1045
rejected = 0
matrix size = 4
fillins = 0
solver = Normal
Matrix Compiler1: off  [0.0]/0.0/0.1
Matrix Compiler2: off  [0.0]/0.1/0.1

