Circuit: * C:\Users\wesle\Desktop\vacation\lm555\Constant_Frequency\LTspice\Draft2.asc

Error on line 7 : v1 vcc 0 sin(time)
	 Unknown parameter "time"
.OP point found by inspection.

Date: Mon Dec 23 12:09:28 2019
Total elapsed time: 0.915 seconds.

tnom = 27
temp = 27
method = modified trap
totiter = 2082
traniter = 2082
tranpoints = 1042
accept = 1042
rejected = 0
matrix size = 4
fillins = 0
solver = Normal
Matrix Compiler1: 136 bytes object code size  0.4/0.2/[0.3]
Matrix Compiler2: off  [0.2]/0.4/0.2

